16V
     RDKit          3D

 38 39  0  0  0  0  0  0  0  0999 V2000
    3.7340   -2.8500    0.0060 O   0  0  0  0  0  0  0  0  0  0  0  0
    4.4730   -1.8870    0.0070 C   0  0  0  0  0  0  0  0  0  0  0  0
    5.8090   -2.0630    0.0070 O   0  0  0  0  0  0  0  0  0  0  0  0
    3.9090   -0.5230    0.0010 C   0  0  0  0  0  0  0  0  0  0  0  0
    2.5250   -0.3370    0.0000 C   0  0  0  0  0  0  0  0  0  0  0  0
    4.7580    0.5870    0.0020 C   0  0  0  0  0  0  0  0  0  0  0  0
    4.2280    1.8600   -0.0040 C   0  0  0  0  0  0  0  0  0  0  0  0
    2.8550    2.0420   -0.0100 C   0  0  0  0  0  0  0  0  0  0  0  0
    2.3420    3.2920   -0.0160 F   0  0  0  0  0  0  0  0  0  0  0  0
    2.0030    0.9430    0.0000 C   0  0  0  0  0  0  0  0  0  0  0  0
    0.6560    1.1280   -0.0060 O   0  0  0  0  0  0  0  0  0  0  0  0
   -0.1600   -0.0460    0.0060 C   0  0  1  0  0  0  0  0  0  0  0  0
   -1.6350    0.3590   -0.0030 C   0  0  1  0  0  0  0  0  0  0  0  0
   -2.5090   -0.8970    0.0090 C   0  0  1  0  0  0  0  0  0  0  0  0
   -3.9620   -0.4990    0.0000 C   0  0  0  0  0  0  0  0  0  0  0  0
   -4.7270   -0.3020   -1.0990 C   0  0  0  0  0  0  0  0  0  0  0  0
   -4.2780   -0.4420   -2.5300 C   0  0  1  0  0  0  0  0  0  0  0  0
   -5.9640    0.0420   -0.6830 N   0  0  0  0  0  0  0  0  0  0  0  0
   -5.9590    0.0570    0.7180 N   0  0  0  0  0  0  0  0  0  0  0  0
   -4.7610   -0.2740    1.1260 C   0  0  0  0  0  0  0  0  0  0  0  0
   -4.3150   -0.3820    2.5620 C   0  0  1  0  0  0  0  0  0  0  0  0
    6.1320   -2.9750    0.0070 H   0  0  0  0  0  0  0  0  0  0  0  0
    1.8640   -1.1920   -0.0010 H   0  0  0  0  0  0  0  0  0  0  0  0
    5.8290    0.4470    0.0070 H   0  0  0  0  0  0  0  0  0  0  0  0
    4.8860    2.7170   -0.0030 H   0  0  0  0  0  0  0  0  0  0  0  0
    0.0570   -0.6480   -0.8760 H   0  0  0  0  0  0  0  0  0  0  0  0
    0.0520   -0.6260    0.9040 H   0  0  0  0  0  0  0  0  0  0  0  0
   -1.8530    0.9610    0.8790 H   0  0  0  0  0  0  0  0  0  0  0  0
   -1.8470    0.9400   -0.9010 H   0  0  0  0  0  0  0  0  0  0  0  0
   -2.2920   -1.5000   -0.8730 H   0  0  0  0  0  0  0  0  0  0  0  0
   -2.2970   -1.4780    0.9070 H   0  0  0  0  0  0  0  0  0  0  0  0
   -4.4410   -1.4670   -2.8640 H   0  0  0  0  0  0  0  0  0  0  0  0
   -4.8490    0.2410   -3.1590 H   0  0  0  0  0  0  0  0  0  0  0  0
   -3.2170   -0.2010   -2.6030 H   0  0  0  0  0  0  0  0  0  0  0  0
   -6.7220    0.2440   -1.2530 H   0  0  0  0  0  0  0  0  0  0  0  0
   -4.4840   -1.3980    2.9190 H   0  0  0  0  0  0  0  0  0  0  0  0
   -3.2530   -0.1450    2.6320 H   0  0  0  0  0  0  0  0  0  0  0  0
   -4.8850    0.3180    3.1730 H   0  0  0  0  0  0  0  0  0  0  0  0
  1  2  2  0
  2  3  1  0
  3 22  1  0
  4  6  1  0
  4  2  1  0
  5  4  2  0
  5 23  1  0
  6 24  1  0
  7  6  2  0
  7 25  1  0
  8  7  1  0
  9  8  1  0
 10  8  2  0
 10  5  1  0
 11 10  1  0
 12 11  1  0
 12 26  1  6
 12 27  1  0
 13 12  1  0
 13 28  1  1
 13 29  1  0
 14 13  1  0
 14 30  1  6
 14 31  1  0
 15 14  1  0
 16 17  1  0
 16 15  2  0
 17 32  1  6
 17 33  1  0
 17 34  1  0
 18 16  1  0
 18 35  1  0
 19 18  1  0
 19 20  2  0
 20 21  1  0
 20 15  1  0
 21 36  1  1
 21 37  1  0
 21 38  1  0
M  END
$$$$
